Circuit: * C:\Users\Ishanya\Desktop\Lab Work-Dec\MOS\Draft5.asc

WARNING: Node N003 is floating.

.dc sweep increment has wrong sign -- fixing...
.dc sweep increment has wrong sign -- fixing...
.OP point found by inspection.
.step vgs=0
.step vgs=-2
.step vgs=-4
.step vgs=-5

Date: Thu Dec  7 12:25:45 2023
Total elapsed time: 0.261 seconds.

tnom = 27
temp = 27
method = trap
totiter = 4020
traniter = 0
tranpoints = 0
accept = 0
rejected = 0
matrix size = 5
fillins = 0
solver = Normal
Avg thread counts: 1.5/0.0/2.0/1.5
Matrix Compiler1: 222 bytes object code size  0.1/0.1/[0.1]
Matrix Compiler2: 311 bytes object code size  0.1/0.1/[0.1]

