Circuit: * C:\Users\Ishanya\Desktop\Lab Work-Dec\MOS\MOS_TRANS.asc

.step vgs=3
.step vgs=4
.step vgs=5

Date: Fri Dec  8 16:14:31 2023
Total elapsed time: 0.146 seconds.

tnom = 27
temp = 27
method = trap
totiter = 314
traniter = 0
tranpoints = 0
accept = 0
rejected = 0
matrix size = 4
fillins = 0
solver = Normal
Avg thread counts: 5.8/0.0/7.0/5.8
Matrix Compiler1: off  [0.1]/0.1/0.2
Matrix Compiler2: off  [0.1]/0.1/0.4

